*SPEF "1481-1998"
*DESIGN "bitdetector"
*DATE "Tue May 29 10:36:06 2018"
*VENDOR "Synopsys, Inc."
*PROGRAM "icc_shell"
*VERSION "N-2017.09-SP2"
*DESIGN_FLOW "PIN_CAP NONE"
*DIVIDER /
*DELIMITER :
*BUS_DELIMITER [ ]
*T_UNIT 1 NS
*C_UNIT 1 FF
*R_UNIT 1 OHM
*L_UNIT 1 HENRY

*NAME_MAP
*1 i_valid
*2 o_ready
*3 reset_n
*4 clk
*5 VDD
*6 VSS
*7 outp
*8 o_eop
*9 o_sop
*10 o_valid
*11 i_ready
*12 inp
*13 i_eop
*14 i_sop
*15 inp_pre
*16 U39
*17 U44
*18 inp_pre_reg
*19 n2
*20 n27
*21 U43
*22 U37
*23 U38
*24 U36
*25 N145
*26 o_sop_reg
*27 n26
*28 U41
*29 U42
*30 N146
*31 i_ready_reg
*32 state\[1\]
*33 state_reg\[1\]
*34 U33
*35 state\[0\]
*36 U27
*37 U28
*38 U30
*39 state_reg\[0\]
*40 n25
*41 U40
*42 U32
*43 N147
*44 outp_reg
*45 n24
*46 N148
*47 o_valid_reg
*48 N149
*49 o_eop_reg
*50 n28
*51 n23
*52 U31
*53 N18
*54 U35
*55 n22
*56 n21
*57 U34
*58 n20
*59 n19
*60 U29
*61 N17
*62 n18
*63 n30
*64 n29

*PORTS
*1 I *L 0.0 *S 0.0 0.0
*2 I *L 0.0 *S 0.0 0.0
*3 I *L 0.0 *S 0.0 0.0
*4 I *L 0.0 *S 0.0 0.0
*5 I *L 0.0 *S 0.0 0.0
*6 I *L 0.0 *S 0.0 0.0
*7 O *L 4.0 *S 0.0 0.0
*8 O *L 4.0 *S 0.0 0.0
*9 O *L 4.0 *S 0.0 0.0
*10 O *L 4.0 *S 0.0 0.0
*11 O *L 4.0 *S 0.0 0.0
*12 I *L 0.0 *S 0.0 0.0
*13 I *L 0.0 *S 0.0 0.0
*14 I *L 0.0 *S 0.0 0.0

*D_NET *15 1.551555

*CONN
*I *16:IN4 I *L 2240.331 *C 26.008 10.918
*I *17:IN1 I *L 2120.236 *C 27.81 14.115
*I *18:Q O *L 0.0 *D DFFX1 *C 31.833 5.899
*N *15:4 *C 27.81 10.918
*N *15:5 *C 27.81 5.899

*CAP
1 *16:IN4 0.1015407
2 *17:IN1 0.1741483
3 *18:Q 0.2266916
4 *15:4 0.5490859
5 *15:5 0.5000886

*RES
1 *15:4 *16:IN4 2.943976
2 *15:4 *17:IN1 3.819036
3 *15:5 *15:4 4.171103
4 *18:Q *15:5 2.985969

*END

*D_NET *19 1.251572

*CONN
*I *18:D I *L 1629.51 *C 24.508 5.51
*I *17:Q O *L 0.0 *D MUX21X1 *C 26.567 14.447
*N *19:3 *C 24.508 14.447

*CAP
1 *18:D 0.4917554
2 *17:Q 0.1340303
3 *19:3 0.6257858

*RES
1 *19:3 *18:D 7.450576
2 *17:Q *19:3 1.880798

*END

*D_NET *20 2.111754

*CONN
*I *21:IN2 I *L 1740.106 *C 11.442 19.005
*I *22:IN2 I *L 1740.106 *C 13.042 23.315
*I *23:IN3 I *L 1304.934 *C 13.332 10.6
*I *24:Q O *L 0.0 *D AO21X1 *C 15.294 20.032
*N *20:5 *C 15.294 19.005
*N *20:6 *C 13.042 19.005
*N *20:7 *C 13.332 19.005

*CAP
1 *21:IN2 0.1020035
2 *22:IN2 0.2541412
3 *23:IN3 0.4956048
4 *24:Q 0.06055753
5 *20:5 0.1856393
6 *20:6 0.3746328
7 *20:7 0.6391746

*RES
1 *20:6 *21:IN2 2.829565
2 *20:6 *22:IN2 4.476402
3 *20:7 *23:IN3 6.895012
4 *24:Q *20:5 1.330625
5 *20:7 *20:6 1.128304
6 *20:5 *20:7 2.308856

*END

*D_NET *25 0.3251907

*CONN
*I *26:D I *L 1629.51 *C 8.852 19.53
*I *21:Q O *L 0.0 *D AND2X1 *C 10.59 20.153
*N *25:3 *C 8.852 20.153

*CAP
1 *26:D 0.04467106
2 *21:Q 0.1179243
3 *25:3 0.1625954

*RES
1 *25:3 *26:D 2.540118
2 *21:Q *25:3 1.70012

*END

*D_NET *27 0.8253376

*CONN
*I *28:QN O *L 0.0 *D NAND2X0 *C 16.398 14.155
*I *29:IN3 I *L 1304.934 *C 19.388 10.6
*N *27:3 *C 16.398 10.6

*CAP
1 *28:QN 0.2224524
2 *29:IN3 0.1902164
3 *27:3 0.4126688

*RES
1 *27:3 *29:IN3 3.851021
2 *28:QN *27:3 2.823725

*END

*D_NET *30 1.836607

*CONN
*I *31:D I *L 1629.51 *C 19.388 25.29
*I *29:Q O *L 0.0 *D AND3X1 *C 20.278 10.745
*N *30:3 *C 19.388 10.745

*CAP
1 *31:D 0.8564796
2 *29:Q 0.06182375
3 *30:3 0.9183033

*RES
1 *30:3 *31:D 10.7628
2 *29:Q *30:3 1.224039

*END

*D_NET *32 2.262777

*CONN
*I *33:Q O *L 0.0 *D DFFX1 *C 9.433 24.901
*I *28:IN1 I *L 1651.178 *C 16.267 13.337
*I *34:IN1 I *L 2062.696 *C 16.682 16.685
*N *32:4 *C 16.267 16.685
*N *32:5 *C 9.433 16.685

*CAP
1 *33:Q 0.4854508
2 *28:IN1 0.19782
3 *34:IN1 0.02565442
4 *32:4 0.6459379
5 *32:5 0.9079142

*RES
1 *32:4 *28:IN1 3.908221
2 *32:4 *34:IN1 2.163923
3 *32:5 *32:4 5.045572
4 *33:Q *32:5 5.576629

*END

*D_NET *35 2.825968

*CONN
*I *36:IN2 I *L 2495.267 *C 11.695 16.373
*I *24:IN1 I *L 1807.258 *C 16.84 19.882
*I *28:IN2 I *L 1501.498 *C 16.965 14.442
*I *37:IN3 I *L 1747.847 *C 19.398 16.68
*I *38:IN1 I *L 2205.071 *C 20.62 20.36
*I *39:Q O *L 0.0 *D DFFX1 *C 23.927 19.141
*N *35:7 *C 20.62 19.882
*N *35:8 *C 19.398 19.882
*N *35:9 *C 19.398 14.442
*N *35:10 *C 20.62 19.141
*N *35:11 *C 11.695 14.442

*CAP
1 *36:IN2 0.117898
2 *24:IN1 0.1536733
3 *28:IN2 0.4627621
4 *37:IN3 0.3321415
5 *38:IN1 0.0291845
6 *39:Q 0.1986699
7 *35:7 0.1478389
8 *35:8 0.4225851
9 *35:9 0.2828059
10 *35:10 0.243912
11 *35:11 0.4344963

*RES
1 *35:11 *36:IN2 3.312656
2 *35:8 *24:IN1 3.367696
3 *35:9 *28:IN2 2.814779
4 *35:8 *37:IN3 3.097937
5 *35:7 *38:IN1 2.213126
6 *35:10 *35:7 1.644408
7 *35:7 *35:8 1.65183
8 *37:IN3 *35:9 2.769925
9 *39:Q *35:10 2.581672
10 *28:IN2 *35:11 4.408388

*END

*D_NET *40 1.446491

*CONN
*I *41:IN2 I *L 2778.372 *C 12.713 14.18
*I *34:IN4 I *L 1817.001 *C 15.58 17.683
*I *42:ZN O *L 0.0 *D INVX0 *C 18.536 19.892
*N *40:4 *C 18.536 17.683
*N *40:5 *C 15.58 14.18

*CAP
1 *41:IN2 0.1787719
2 *34:IN4 0.4051922
3 *42:ZN 0.1392816
4 *40:4 0.323603
5 *40:5 0.3996426

*RES
1 *40:5 *41:IN2 3.782619
2 *40:4 *34:IN4 3.10856
3 *42:ZN *40:4 2.028744
4 *34:IN4 *40:5 3.517065

*END

*D_NET *43 0.8367897

*CONN
*I *44:D I *L 1629.51 *C 8.852 11.27
*I *41:QN O *L 0.0 *D NOR3X0 *C 12.77 14.283
*N *43:3 *C 8.852 14.283

*CAP
1 *44:D 0.1905522
2 *41:QN 0.2278426
3 *43:3 0.4183949

*RES
1 *43:3 *44:D 3.951712
2 *41:QN *43:3 2.923211

*END

*D_NET *45 1.745369

*CONN
*I *41:IN3 I *L 2872.008 *C 13.57 14.505
*I *16:QN O *L 0.0 *D NAND4X0 *C 24.937 10.724
*N *45:3 *C 13.57 10.724

*CAP
1 *41:IN3 0.2356075
2 *16:QN 0.6370772
3 *45:3 0.8726847

*RES
1 *45:3 *41:IN3 4.405312
2 *16:QN *45:3 7.107036

*END

*D_NET *46 0.9782386

*CONN
*I *47:D I *L 1629.51 *C 9.172 5.51
*I *23:Q O *L 0.0 *D AND3X1 *C 12.442 10.745
*N *46:3 *C 9.172 10.745

*CAP
1 *47:D 0.2965584
2 *23:Q 0.192561
3 *46:3 0.4891193

*RES
1 *46:3 *47:D 5.264081
2 *23:Q *46:3 2.559491

*END

*D_NET *48 0.9832437

*CONN
*I *22:Q O *L 0.0 *D AND2X1 *C 12.19 22.167
*I *49:D I *L 1629.51 *C 17.172 25.29
*N *48:3 *C 12.19 25.29

*CAP
1 *22:Q 0.1928198
2 *49:D 0.298802
3 *48:3 0.4916219

*RES
1 *48:3 *49:D 4.972134
2 *22:Q *48:3 2.568575

*END

*D_NET *50 2.222015

*CONN
*I *33:QN O *L 0.0 *D DFFX1 *C 8.445 24.906
*I *24:IN2 I *L 1758.472 *C 17.33 19.9
*I *37:IN2 I *L 1656.099 *C 18.443 17.768
*I *38:IN2 I *L 2284.549 *C 20.095 18.73
*N *50:5 *C 18.443 18.73
*N *50:6 *C 17.33 18.73
*N *50:7 *C 8.445 19.9

*CAP
1 *33:QN 0.303391
2 *24:IN2 0.5883016
3 *37:IN2 0.05830248
4 *38:IN2 0.09619961
5 *50:5 0.2193145
6 *50:6 0.1357209
7 *50:7 0.8207843

*RES
1 *50:7 *24:IN2 6.441638
2 *50:5 *37:IN2 2.498989
3 *50:5 *38:IN2 2.859262
4 *50:6 *50:5 1.832281
5 *24:IN2 *50:6 2.139137
6 *33:QN *50:7 3.680722

*END

*D_NET *51 1.292007

*CONN
*I *24:IN3 I *L 1961.939 *C 16.262 19.882
*I *42:INP I *L 1863.017 *C 19.007 19.867
*I *38:QN O *L 0.0 *D NOR2X0 *C 20.496 19.972
*I *52:IN4 I *L 1685.926 *C 23.343 16.68
*N *51:5 *C 20.496 19.867
*N *51:6 *C 16.262 19.867
*N *51:7 *C 20.496 16.68

*CAP
1 *24:IN3 0.0009767886
2 *42:INP 0.2575045
3 *38:QN 0.00683752
4 *52:IN4 0.1731496
5 *51:5 0.3049309
6 *51:6 0.1679229
7 *51:7 0.3806846

*RES
1 *51:6 *24:IN3 2.181018
2 *51:5 *42:INP 2.04325
3 *51:7 *52:IN4 3.771554
4 *38:QN *51:5 0.5447176
5 *42:INP *51:6 2.9902
6 *51:5 *51:7 3.089077

*END

*D_NET *53 2.118346

*CONN
*I *33:D I *L 1629.51 *C 2.108 25.29
*I *54:QN O *L 0.0 *D NOR2X0 *C 10.304 14.212
*N *53:3 *C 2.108 14.212

*CAP
1 *33:D 0.5841168
2 *54:QN 0.4750562
3 *53:3 1.059173

*RES
1 *53:3 *33:D 8.715104
2 *54:QN *53:3 5.334441

*END

*D_NET *55 0.7708926

*CONN
*I *54:IN1 I *L 2205.071 *C 10.18 14.6
*I *34:Q O *L 0.0 *D OA22X1 *C 13.873 16.802
*N *55:3 *C 10.18 16.802

*CAP
1 *54:IN1 0.1493532
2 *34:Q 0.2360931
3 *55:3 0.3854463

*RES
1 *55:3 *54:IN1 3.472715
2 *34:Q *55:3 2.798497

*END

*D_NET *56 0.9387722

*CONN
*I *54:IN2 I *L 2284.549 *C 10.705 12.97
*I *57:ZN O *L 0.0 *D INVX0 *C 16.616 10.908
*N *56:3 *C 10.705 10.908

*CAP
1 *54:IN2 0.1316413
2 *57:ZN 0.3377448
3 *56:3 0.4693861

*RES
1 *56:3 *54:IN2 3.390028
2 *57:ZN *56:3 4.042667

*END

*D_NET *58 1.158876

*CONN
*I *36:QN O *L 0.0 *D NAND3X0 *C 12.138 16.476
*I *34:IN2 I *L 1961.262 *C 16.22 17.77
*I *37:IN5 I *L 1431.084 *C 20.04 16.555
*N *58:4 *C 16.22 16.555
*N *58:5 *C 16.22 16.476

*CAP
1 *36:QN 0.2516007
2 *34:IN2 0.08674496
3 *37:IN5 0.2354519
4 *58:4 0.3278371
5 *58:5 0.2572409

*RES
1 *58:4 *34:IN2 2.648418
2 *58:4 *37:IN5 4.076591
3 *58:5 *58:4 1.253414
4 *36:QN *58:5 3.017007

*END

*D_NET *59 1.527462

*CONN
*I *34:IN3 I *L 1841.605 *C 15.075 17.683
*I *60:QN O *L 0.0 *D NOR2X0 *C 18.304 22.348
*I *52:IN2 I *L 1656.099 *C 22.923 17.768
*N *59:4 *C 18.304 17.683
*N *59:5 *C 18.304 17.768

*CAP
1 *34:IN3 0.1956856
2 *60:QN 0.2828724
3 *52:IN2 0.2799231
4 *59:4 0.2009354
5 *59:5 0.5680453

*RES
1 *59:4 *34:IN3 3.986155
2 *59:5 *52:IN2 4.525682
3 *59:5 *59:4 1.256958
4 *60:QN *59:5 3.187765

*END

*D_NET *61 0.9539204

*CONN
*I *52:Q O *L 0.0 *D OA221X1 *C 25.893 16.805
*I *39:D I *L 1629.51 *C 31.252 19.53
*N *61:3 *C 25.893 19.53

*CAP
1 *52:Q 0.1603128
2 *39:D 0.3166474
3 *61:3 0.4769602

*RES
1 *61:3 *39:D 5.183071
2 *52:Q *61:3 2.333507

*END

*D_NET *62 0.3284658

*CONN
*I *37:Q O *L 0.0 *D OA221X1 *C 21.413 16.805
*I *52:IN1 I *L 1841.586 *C 22.423 16.71
*I *52:IN3 I *L 1747.847 *C 23.878 16.68
*N *62:4 *C 21.413 16.71
*N *62:5 *C 22.423 16.68

*CAP
1 *37:Q 0.006323788
2 *52:IN1 0.06587984
3 *52:IN3 0.09202926
4 *62:4 0.07020664
5 *62:5 0.09402625

*RES
1 *62:4 *52:IN1 2.015507
2 *62:5 *52:IN3 2.989553
3 *37:Q *62:4 0.7801623
4 *52:IN1 *62:5 1.465825

*END

*D_NET *63 1.103873

*CONN
*I *49:QN O *L 0.0 *D DFFX1 *C 10.835 24.906
*I *60:IN2 I *L 2284.549 *C 18.705 23.59
*N *63:3 *C 10.835 23.59

*CAP
1 *49:QN 0.08872312
2 *60:IN2 0.4632132
3 *63:3 0.5519363

*RES
1 *63:3 *60:IN2 6.595243
2 *49:QN *63:3 1.501316

*END

*D_NET *64 1.205659

*CONN
*I *26:QN O *L 0.0 *D DFFX1 *C 2.515 19.146
*I *36:IN3 I *L 2499.111 *C 11.363 17.63
*N *64:3 *C 2.515 17.63

*CAP
1 *26:QN 0.09117305
2 *36:IN3 0.5116566
3 *64:3 0.6028297

*RES
1 *64:3 *36:IN3 7.149308
2 *26:QN *64:3 1.619441

*END

*D_NET *7 1.229573

*CONN
*P *7 O *C 0.0 1.88
*I *44:Q O *L 0.0 *D DFFX1 *C 1.527 11.659
*N *7:3 *C 0.0 11.659

*CAP
1 *7 0.5193157
2 *44:Q 0.09547068
3 *7:3 0.6147863

*RES
1 *7:3 *7 7.947883
2 *44:Q *7:3 1.581344

*END

*D_NET *8 2.531008

*CONN
*P *8 O *C 0.0 15.32
*I *49:Q O *L 0.0 *D DFFX1 *C 9.847 24.901
*I *41:IN1 I *L 2758.612 *C 12.143 14.145
*N *8:4 *C 9.847 14.145
*N *8:5 *C 9.847 15.32

*CAP
1 *8 0.5659949
2 *49:Q 0.5055391
3 *41:IN1 0.1319716
4 *8:4 0.1939702
5 *8:5 1.133533

*RES
1 *8:5 *8 7.469912
2 *8:4 *41:IN1 3.463698
3 *8:5 *8:4 1.90074
4 *49:Q *8:5 6.141481

*END

*D_NET *9 1.188267

*CONN
*P *9 O *C 0.0 28.76
*I *26:Q O *L 0.0 *D DFFX1 *C 1.527 19.141
*N *9:3 *C 0.0 19.141

*CAP
1 *9 0.4996246
2 *26:Q 0.09450898
3 *9:3 0.5941336

*RES
1 *9:3 *9 7.853382
2 *26:Q *9:3 1.582255

*END

*D_NET *10 2.567835

*CONN
*P *10 O *C 1.72 30.64
*I *47:Q O *L 0.0 *D DFFX1 *C 1.847 5.899
*N *10:3 *C 1.72 5.899

*CAP
1 *10 1.276072
2 *47:Q 0.007845535
3 *10:3 1.283918

*RES
1 *10:3 *10 16.78481
2 *47:Q *10:3 0.7955674

*END

*D_NET *11 1.617114

*CONN
*P *11 O *C 16.44 30.64
*I *31:Q O *L 0.0 *D DFFX1 *C 26.713 24.901
*N *11:3 *C 16.44 24.901

*CAP
1 *11 0.30141
2 *31:Q 0.5071469
3 *11:3 0.8085569

*RES
1 *11:3 *11 5.561756
2 *31:Q *11:3 6.531776

*END

*D_NET *12 2.580527

*CONN
*I *16:IN3 I *L 2263.536 *C 25.508 11.855
*I *17:IN2 I *L 2266.128 *C 27.982 13.802
*P *12 I *C 31.48 30.64
*N *12:4 *C 27.982 11.855
*N *12:5 *C 31.48 13.802

*CAP
1 *16:IN3 0.1343044
2 *17:IN2 0.2900229
3 *12 0.865936
4 *12:4 0.2344337
5 *12:5 1.05583

*RES
1 *12:4 *16:IN3 3.564569
2 *12:5 *17:IN2 3.416841
3 *17:IN2 *12:4 2.598053
4 *12 *12:5 10.669

*END

*D_NET *13 4.32818

*CONN
*I *22:IN1 I *L 1667.514 *C 13.505 22.12
*I *60:IN1 I *L 2205.071 *C 18.18 21.96
*P *13 I *C 33.2 1.88
*N *13:4 *C 13.505 21.96
*N *13:5 *C 18.18 1.88

*CAP
1 *22:IN1 0.008561635
2 *60:IN1 1.331092
3 *13 0.824436
4 *13:4 0.2651687
5 *13:5 1.898921

*RES
1 *13:4 *22:IN1 2.266659
2 *13:5 *60:IN1 13.30786
3 *60:IN1 *13:4 4.074712
4 *13 *13:5 9.162904

*END

*D_NET *14 3.046262

*CONN
*I *21:IN1 I *L 1667.514 *C 11.905 20.2
*I *36:IN1 I *L 2403.441 *C 12.315 17.623
*P *14 I *C 33.2 15.32
*N *14:4 *C 11.905 17.623
*N *14:5 *C 12.315 15.32

*CAP
1 *21:IN1 0.1440297
2 *36:IN1 0.1527898
3 *14 1.226311
4 *14:4 0.1681038
5 *14:5 1.355027

*RES
1 *14:4 *21:IN1 3.6942
2 *14:5 *36:IN1 2.808316
3 *36:IN1 *14:4 1.678437
4 *14 *14:5 12.45689

*END

*D_NET *1 3.864882

*CONN
*I *23:IN2 I *L 1360.635 *C 13.512 11.703
*I *16:IN2 I *L 2262.304 *C 24.8 11.85
*P *1 I *C 33.2 28.76
*N *1:4 *C 24.8 11.703
*N *1:5 *C 33.2 11.85

*CAP
1 *23:IN2 0.6011176
2 *16:IN2 0.454942
3 *1 0.8763812
4 *1:4 0.608736
5 *1:5 1.323705

*RES
1 *1:4 *23:IN2 8.51688
2 *1:5 *16:IN2 6.169549
3 *16:IN2 *1:4 1.534928
4 *1 *1:5 10.71152

*END

*D_NET *2 4.427664

*CONN
*P *2 I *C 1.72 0.0
*I *23:IN1 I *L 1323.219 *C 14.36 10.608
*I *37:IN4 I *L 1685.926 *C 18.863 16.68
*I *29:IN2 I *L 1360.635 *C 19.208 11.703
*I *16:IN1 I *L 2154.869 *C 24.23 10.92
*N *2:6 *C 18.863 11.703
*N *2:7 *C 19.208 10.92
*N *2:8 *C 19.208 10.608
*N *2:9 *C 14.36 0.0

*CAP
1 *2 0.6928123
2 *23:IN1 0.8769718
3 *37:IN4 0.2867816
4 *29:IN2 0.06402736
5 *16:IN1 0.2752613
6 *2:6 0.3056914
7 *2:7 0.3383568
8 *2:8 0.2837021
9 *2:9 1.30406

*RES
1 *2:9 *23:IN1 7.713457
2 *2:6 *37:IN4 5.1117
3 *2:7 *29:IN2 1.669214
4 *2:7 *16:IN1 4.750214
5 *29:IN2 *2:6 1.641793
6 *2:8 *2:7 1.39103
7 *23:IN1 *2:8 4.169826
8 *2 *2:9 7.820288

*END

*D_NET *3 3.214084

*CONN
*P *3 I *C 16.44 0.0
*I *57:INP I *L 1863.017 *C 17.087 10.933
*I *29:IN1 I *L 1323.219 *C 18.36 10.608
*I *52:IN5 I *L 1431.084 *C 24.52 16.555
*I *17:S I *L 3652.266 *C 28.907 13.787
*N *3:6 *C 18.36 10.933
*N *3:7 *C 24.52 13.787
*N *3:8 *C 24.52 10.933
*N *3:9 *C 17.087 0.0

*CAP
1 *3 0.03579209
2 *57:INP 0.6645914
3 *29:IN1 0.01766257
4 *52:IN5 0.1504308
5 *17:S 0.2426892
6 *3:6 0.4288567
7 *3:7 0.5482245
8 *3:8 0.4958762
9 *3:9 0.629961

*RES
1 *3:9 *57:INP 7.905411
2 *3:6 *29:IN1 2.122761
3 *3:7 *52:IN5 3.565658
4 *3:7 *17:S 4.396288
5 *57:INP *3:6 1.922177
6 *3:8 *3:7 2.892399
7 *3:6 *3:8 4.668655
8 *3 *3:9 1.087665

*END

*D_NET *4 9.497214

*CONN
*I *33:CLK I *L 1307.587 *C 2.753 25.29
*I *44:CLK I *L 1307.587 *C 8.207 11.27
*I *26:CLK I *L 1307.587 *C 8.207 19.53
*I *47:CLK I *L 1307.587 *C 8.527 5.51
*I *49:CLK I *L 1307.587 *C 16.527 25.29
*I *31:CLK I *L 1307.587 *C 20.033 25.29
*I *18:CLK I *L 1307.587 *C 25.153 5.51
*I *39:CLK I *L 1307.587 *C 30.607 19.53
*P *4 I *C 31.48 0.0
*N *4:10 *C 8.207 5.51
*N *4:11 *C 2.753 19.53
*N *4:12 *C 25.153 0.0
*N *4:13 *C 20.033 19.53
*N *4:14 *C 25.153 19.53

*CAP
1 *33:CLK 1.000672
2 *44:CLK 0.9124837
3 *26:CLK 0.7853857
4 *47:CLK 0.01453837
5 *49:CLK 0.785072
6 *31:CLK 0.5341724
7 *18:CLK 1.271099
8 *39:CLK 0.2477884
9 *4 0.2874509
10 *4:10 0.3894247
11 *4:11 0.6226746
12 *4:12 0.646066
13 *4:13 0.6075003
14 *4:14 1.392886

*RES
1 *49:CLK *33:CLK 9.935271
2 *26:CLK *44:CLK 6.678564
3 *4:11 *26:CLK 4.931269
4 *4:10 *47:CLK 2.799
5 *31:CLK *49:CLK 3.870731
6 *4:13 *31:CLK 5.112001
7 *4:12 *18:CLK 4.964345
8 *4:14 *39:CLK 5.561269
9 *44:CLK *4:10 5.112001
10 *33:CLK *4:11 5.112001
11 *4 *4:12 4.546885
12 *4:14 *4:13 4.374001
13 *18:CLK *4:14 9.720564

*END
